*SPEF "ieee 1481-1999"
*DESIGN "openframe_project_wrapper"
*DATE "19:47:21 Wednesday April 15, 2026"
*VENDOR "The OpenROAD Project"
*PROGRAM "OpenROAD"
*VERSION "edf00dff99f6c40d67a30c0e22a8191c5d2ed9d6"
*DESIGN_FLOW "NAME_SCOPE LOCAL" "PIN_CAP NONE"
*DIVIDER /
*DELIMITER :
*BUS_DELIMITER []
*T_UNIT 1 NS
*C_UNIT 1 PF
*R_UNIT 1 OHM
*L_UNIT 1 HENRY

*NAME_MAP
*1 analog_io[0]
*2 analog_io[10]
*3 analog_io[11]
*4 analog_io[12]
*5 analog_io[13]
*6 analog_io[14]
*7 analog_io[15]
*8 analog_io[16]
*9 analog_io[17]
*10 analog_io[18]
*11 analog_io[19]
*12 analog_io[1]
*13 analog_io[20]
*14 analog_io[21]
*15 analog_io[22]
*16 analog_io[23]
*17 analog_io[24]
*18 analog_io[25]
*19 analog_io[26]
*20 analog_io[27]
*21 analog_io[28]
*22 analog_io[29]
*23 analog_io[2]
*24 analog_io[30]
*25 analog_io[31]
*26 analog_io[32]
*27 analog_io[33]
*28 analog_io[34]
*29 analog_io[35]
*30 analog_io[36]
*31 analog_io[37]
*32 analog_io[38]
*33 analog_io[39]
*34 analog_io[3]
*35 analog_io[40]
*36 analog_io[41]
*37 analog_io[42]
*38 analog_io[43]
*39 analog_io[4]
*40 analog_io[5]
*41 analog_io[6]
*42 analog_io[7]
*43 analog_io[8]
*44 analog_io[9]
*45 analog_noesd_io[0]
*46 analog_noesd_io[10]
*47 analog_noesd_io[11]
*48 analog_noesd_io[12]
*49 analog_noesd_io[13]
*50 analog_noesd_io[14]
*51 analog_noesd_io[15]
*52 analog_noesd_io[16]
*53 analog_noesd_io[17]
*54 analog_noesd_io[18]
*55 analog_noesd_io[19]
*56 analog_noesd_io[1]
*57 analog_noesd_io[20]
*58 analog_noesd_io[21]
*59 analog_noesd_io[22]
*60 analog_noesd_io[23]
*61 analog_noesd_io[24]
*62 analog_noesd_io[25]
*63 analog_noesd_io[26]
*64 analog_noesd_io[27]
*65 analog_noesd_io[28]
*66 analog_noesd_io[29]
*67 analog_noesd_io[2]
*68 analog_noesd_io[30]
*69 analog_noesd_io[31]
*70 analog_noesd_io[32]
*71 analog_noesd_io[33]
*72 analog_noesd_io[34]
*73 analog_noesd_io[35]
*74 analog_noesd_io[36]
*75 analog_noesd_io[37]
*76 analog_noesd_io[38]
*77 analog_noesd_io[39]
*78 analog_noesd_io[3]
*79 analog_noesd_io[40]
*80 analog_noesd_io[41]
*81 analog_noesd_io[42]
*82 analog_noesd_io[43]
*83 analog_noesd_io[4]
*84 analog_noesd_io[5]
*85 analog_noesd_io[6]
*86 analog_noesd_io[7]
*87 analog_noesd_io[8]
*88 analog_noesd_io[9]
*89 gpio_loopback_zero[0]
*90 gpio_loopback_zero[10]
*91 gpio_loopback_zero[11]
*92 gpio_loopback_zero[12]
*93 gpio_loopback_zero[13]
*94 gpio_loopback_zero[14]
*95 gpio_loopback_zero[15]
*96 gpio_loopback_zero[16]
*97 gpio_loopback_zero[17]
*98 gpio_loopback_zero[18]
*99 gpio_loopback_zero[19]
*100 gpio_loopback_zero[1]
*101 gpio_loopback_zero[20]
*102 gpio_loopback_zero[21]
*103 gpio_loopback_zero[22]
*104 gpio_loopback_zero[23]
*105 gpio_loopback_zero[24]
*106 gpio_loopback_zero[25]
*107 gpio_loopback_zero[26]
*108 gpio_loopback_zero[27]
*109 gpio_loopback_zero[28]
*110 gpio_loopback_zero[29]
*111 gpio_loopback_zero[2]
*112 gpio_loopback_zero[30]
*113 gpio_loopback_zero[31]
*114 gpio_loopback_zero[32]
*115 gpio_loopback_zero[33]
*116 gpio_loopback_zero[34]
*117 gpio_loopback_zero[35]
*118 gpio_loopback_zero[36]
*119 gpio_loopback_zero[37]
*120 gpio_loopback_zero[38]
*121 gpio_loopback_zero[39]
*122 gpio_loopback_zero[3]
*123 gpio_loopback_zero[40]
*124 gpio_loopback_zero[41]
*125 gpio_loopback_zero[42]
*126 gpio_loopback_zero[43]
*127 gpio_loopback_zero[4]
*128 gpio_loopback_zero[5]
*129 gpio_loopback_zero[6]
*130 gpio_loopback_zero[7]
*131 gpio_loopback_zero[8]
*132 gpio_loopback_zero[9]
*133 gpio_loopback_one[0]
*134 gpio_loopback_one[1]
*135 gpio_loopback_one[10]
*136 gpio_loopback_one[11]
*137 gpio_loopback_one[12]
*138 gpio_loopback_one[2]
*139 gpio_loopback_one[3]
*140 gpio_loopback_one[4]
*141 gpio_loopback_one[5]
*142 gpio_loopback_one[6]
*143 gpio_loopback_one[7]
*144 gpio_loopback_one[8]
*145 gpio_loopback_one[9]
*146 gpio_in[0]
*147 gpio_in[10]
*148 gpio_in[11]
*149 gpio_in[12]
*150 gpio_in[13]
*151 gpio_in[14]
*152 gpio_in[15]
*153 gpio_in[16]
*154 gpio_in[17]
*155 gpio_in[18]
*156 gpio_in[19]
*157 gpio_in[1]
*158 gpio_in[20]
*159 gpio_in[21]
*160 gpio_in[22]
*161 gpio_in[23]
*162 gpio_in[24]
*163 gpio_in[25]
*164 gpio_in[26]
*165 gpio_in[27]
*166 gpio_in[28]
*167 gpio_in[29]
*168 gpio_in[2]
*169 gpio_in[30]
*170 gpio_in[31]
*171 gpio_in[32]
*172 gpio_in[33]
*173 gpio_in[34]
*174 gpio_in[35]
*175 gpio_in[36]
*176 gpio_in[37]
*177 gpio_in[38]
*178 gpio_in[39]
*179 gpio_in[3]
*180 gpio_in[40]
*181 gpio_in[41]
*182 gpio_in[42]
*183 gpio_in[43]
*184 gpio_in[4]
*185 gpio_in[5]
*186 gpio_in[6]
*187 gpio_in[7]
*188 gpio_in[8]
*189 gpio_in[9]
*190 gpio_in_h[0]
*191 gpio_in_h[10]
*192 gpio_in_h[11]
*193 gpio_in_h[12]
*194 gpio_in_h[13]
*195 gpio_in_h[14]
*196 gpio_in_h[15]
*197 gpio_in_h[16]
*198 gpio_in_h[17]
*199 gpio_in_h[18]
*200 gpio_in_h[19]
*201 gpio_in_h[1]
*202 gpio_in_h[20]
*203 gpio_in_h[21]
*204 gpio_in_h[22]
*205 gpio_in_h[23]
*206 gpio_in_h[24]
*207 gpio_in_h[25]
*208 gpio_in_h[26]
*209 gpio_in_h[27]
*210 gpio_in_h[28]
*211 gpio_in_h[29]
*212 gpio_in_h[2]
*213 gpio_in_h[30]
*214 gpio_in_h[31]
*215 gpio_in_h[32]
*216 gpio_in_h[33]
*217 gpio_in_h[34]
*218 gpio_in_h[35]
*219 gpio_in_h[36]
*220 gpio_in_h[37]
*221 gpio_in_h[38]
*222 gpio_in_h[39]
*223 gpio_in_h[3]
*224 gpio_in_h[40]
*225 gpio_in_h[41]
*226 gpio_in_h[42]
*227 gpio_in_h[43]
*228 gpio_in_h[4]
*229 gpio_in_h[5]
*230 gpio_in_h[6]
*231 gpio_in_h[7]
*232 gpio_in_h[8]
*233 gpio_in_h[9]
*234 gpio_loopback_one[13]
*235 gpio_loopback_one[14]
*236 gpio_loopback_one[15]
*237 gpio_loopback_one[16]
*238 gpio_loopback_one[17]
*239 gpio_loopback_one[18]
*240 gpio_loopback_one[19]
*241 gpio_loopback_one[20]
*242 gpio_loopback_one[21]
*243 gpio_loopback_one[22]
*244 gpio_loopback_one[23]
*245 gpio_loopback_one[24]
*246 gpio_loopback_one[25]
*247 gpio_loopback_one[26]
*248 gpio_loopback_one[27]
*249 gpio_loopback_one[28]
*250 gpio_loopback_one[29]
*251 gpio_loopback_one[30]
*252 gpio_loopback_one[31]
*253 gpio_loopback_one[32]
*254 gpio_loopback_one[33]
*255 gpio_loopback_one[34]
*256 gpio_loopback_one[35]
*257 gpio_loopback_one[36]
*258 gpio_loopback_one[37]
*259 gpio_loopback_one[38]
*260 gpio_loopback_one[39]
*261 gpio_loopback_one[40]
*262 gpio_loopback_one[41]
*263 gpio_loopback_one[42]
*264 gpio_loopback_one[43]
*265 gpio_out[10]
*266 gpio_out[11]
*267 gpio_out[12]
*268 gpio_out[2]
*269 gpio_out[3]
*270 gpio_out[4]
*271 gpio_out[5]
*272 gpio_out[6]
*273 gpio_out[7]
*274 gpio_out[8]
*275 gpio_out[9]
*276 mask_rev[0]
*277 mask_rev[10]
*278 mask_rev[11]
*279 mask_rev[12]
*280 mask_rev[13]
*281 mask_rev[14]
*282 mask_rev[15]
*283 mask_rev[16]
*284 mask_rev[17]
*285 mask_rev[18]
*286 mask_rev[19]
*287 mask_rev[1]
*288 mask_rev[20]
*289 mask_rev[21]
*290 mask_rev[22]
*291 mask_rev[23]
*292 mask_rev[24]
*293 mask_rev[25]
*294 mask_rev[26]
*295 mask_rev[27]
*296 mask_rev[28]
*297 mask_rev[29]
*298 mask_rev[2]
*299 mask_rev[30]
*300 mask_rev[31]
*301 mask_rev[3]
*302 mask_rev[4]
*303 mask_rev[5]
*304 mask_rev[6]
*305 mask_rev[7]
*306 mask_rev[8]
*307 mask_rev[9]
*308 por_l
*309 porb_h
*310 porb_l
*311 resetb_h
*312 resetb_l
*313 mprj

*PORTS
analog_io[0] I
analog_io[10] I
analog_io[11] I
analog_io[12] I
analog_io[13] I
analog_io[14] I
analog_io[15] I
analog_io[16] I
analog_io[17] I
analog_io[18] I
analog_io[19] I
analog_io[1] I
analog_io[20] I
analog_io[21] I
analog_io[22] I
analog_io[23] I
analog_io[24] I
analog_io[25] I
analog_io[26] I
analog_io[27] I
analog_io[28] I
analog_io[29] I
analog_io[2] I
analog_io[30] I
analog_io[31] I
analog_io[32] I
analog_io[33] I
analog_io[34] I
analog_io[35] I
analog_io[36] I
analog_io[37] I
analog_io[38] I
analog_io[39] I
analog_io[3] I
analog_io[40] I
analog_io[41] I
analog_io[42] I
analog_io[43] I
analog_io[4] I
analog_io[5] I
analog_io[6] I
analog_io[7] I
analog_io[8] I
analog_io[9] I
analog_noesd_io[0] I
analog_noesd_io[10] I
analog_noesd_io[11] I
analog_noesd_io[12] I
analog_noesd_io[13] I
analog_noesd_io[14] I
analog_noesd_io[15] I
analog_noesd_io[16] I
analog_noesd_io[17] I
analog_noesd_io[18] I
analog_noesd_io[19] I
analog_noesd_io[1] I
analog_noesd_io[20] I
analog_noesd_io[21] I
analog_noesd_io[22] I
analog_noesd_io[23] I
analog_noesd_io[24] I
analog_noesd_io[25] I
analog_noesd_io[26] I
analog_noesd_io[27] I
analog_noesd_io[28] I
analog_noesd_io[29] I
analog_noesd_io[2] I
analog_noesd_io[30] I
analog_noesd_io[31] I
analog_noesd_io[32] I
analog_noesd_io[33] I
analog_noesd_io[34] I
analog_noesd_io[35] I
analog_noesd_io[36] I
analog_noesd_io[37] I
analog_noesd_io[38] I
analog_noesd_io[39] I
analog_noesd_io[3] I
analog_noesd_io[40] I
analog_noesd_io[41] I
analog_noesd_io[42] I
analog_noesd_io[43] I
analog_noesd_io[4] I
analog_noesd_io[5] I
analog_noesd_io[6] I
analog_noesd_io[7] I
analog_noesd_io[8] I
analog_noesd_io[9] I
gpio_analog_en[0] O
gpio_analog_en[10] O
gpio_analog_en[11] O
gpio_analog_en[12] O
gpio_analog_en[13] O
gpio_analog_en[14] O
gpio_analog_en[15] O
gpio_analog_en[16] O
gpio_analog_en[17] O
gpio_analog_en[18] O
gpio_analog_en[19] O
gpio_analog_en[1] O
gpio_analog_en[20] O
gpio_analog_en[21] O
gpio_analog_en[22] O
gpio_analog_en[23] O
gpio_analog_en[24] O
gpio_analog_en[25] O
gpio_analog_en[26] O
gpio_analog_en[27] O
gpio_analog_en[28] O
gpio_analog_en[29] O
gpio_analog_en[2] O
gpio_analog_en[30] O
gpio_analog_en[31] O
gpio_analog_en[32] O
gpio_analog_en[33] O
gpio_analog_en[34] O
gpio_analog_en[35] O
gpio_analog_en[36] O
gpio_analog_en[37] O
gpio_analog_en[38] O
gpio_analog_en[39] O
gpio_analog_en[3] O
gpio_analog_en[40] O
gpio_analog_en[41] O
gpio_analog_en[42] O
gpio_analog_en[43] O
gpio_analog_en[4] O
gpio_analog_en[5] O
gpio_analog_en[6] O
gpio_analog_en[7] O
gpio_analog_en[8] O
gpio_analog_en[9] O
gpio_analog_pol[0] O
gpio_analog_pol[10] O
gpio_analog_pol[11] O
gpio_analog_pol[12] O
gpio_analog_pol[13] O
gpio_analog_pol[14] O
gpio_analog_pol[15] O
gpio_analog_pol[16] O
gpio_analog_pol[17] O
gpio_analog_pol[18] O
gpio_analog_pol[19] O
gpio_analog_pol[1] O
gpio_analog_pol[20] O
gpio_analog_pol[21] O
gpio_analog_pol[22] O
gpio_analog_pol[23] O
gpio_analog_pol[24] O
gpio_analog_pol[25] O
gpio_analog_pol[26] O
gpio_analog_pol[27] O
gpio_analog_pol[28] O
gpio_analog_pol[29] O
gpio_analog_pol[2] O
gpio_analog_pol[30] O
gpio_analog_pol[31] O
gpio_analog_pol[32] O
gpio_analog_pol[33] O
gpio_analog_pol[34] O
gpio_analog_pol[35] O
gpio_analog_pol[36] O
gpio_analog_pol[37] O
gpio_analog_pol[38] O
gpio_analog_pol[39] O
gpio_analog_pol[3] O
gpio_analog_pol[40] O
gpio_analog_pol[41] O
gpio_analog_pol[42] O
gpio_analog_pol[43] O
gpio_analog_pol[4] O
gpio_analog_pol[5] O
gpio_analog_pol[6] O
gpio_analog_pol[7] O
gpio_analog_pol[8] O
gpio_analog_pol[9] O
gpio_analog_sel[0] O
gpio_analog_sel[10] O
gpio_analog_sel[11] O
gpio_analog_sel[12] O
gpio_analog_sel[13] O
gpio_analog_sel[14] O
gpio_analog_sel[15] O
gpio_analog_sel[16] O
gpio_analog_sel[17] O
gpio_analog_sel[18] O
gpio_analog_sel[19] O
gpio_analog_sel[1] O
gpio_analog_sel[20] O
gpio_analog_sel[21] O
gpio_analog_sel[22] O
gpio_analog_sel[23] O
gpio_analog_sel[24] O
gpio_analog_sel[25] O
gpio_analog_sel[26] O
gpio_analog_sel[27] O
gpio_analog_sel[28] O
gpio_analog_sel[29] O
gpio_analog_sel[2] O
gpio_analog_sel[30] O
gpio_analog_sel[31] O
gpio_analog_sel[32] O
gpio_analog_sel[33] O
gpio_analog_sel[34] O
gpio_analog_sel[35] O
gpio_analog_sel[36] O
gpio_analog_sel[37] O
gpio_analog_sel[38] O
gpio_analog_sel[39] O
gpio_analog_sel[3] O
gpio_analog_sel[40] O
gpio_analog_sel[41] O
gpio_analog_sel[42] O
gpio_analog_sel[43] O
gpio_analog_sel[4] O
gpio_analog_sel[5] O
gpio_analog_sel[6] O
gpio_analog_sel[7] O
gpio_analog_sel[8] O
gpio_analog_sel[9] O
gpio_dm0[0] O
gpio_dm0[10] O
gpio_dm0[11] O
gpio_dm0[12] O
gpio_dm0[13] O
gpio_dm0[14] O
gpio_dm0[15] O
gpio_dm0[16] O
gpio_dm0[17] O
gpio_dm0[18] O
gpio_dm0[19] O
gpio_dm0[1] O
gpio_dm0[20] O
gpio_dm0[21] O
gpio_dm0[22] O
gpio_dm0[23] O
gpio_dm0[24] O
gpio_dm0[25] O
gpio_dm0[26] O
gpio_dm0[27] O
gpio_dm0[28] O
gpio_dm0[29] O
gpio_dm0[2] O
gpio_dm0[30] O
gpio_dm0[31] O
gpio_dm0[32] O
gpio_dm0[33] O
gpio_dm0[34] O
gpio_dm0[35] O
gpio_dm0[36] O
gpio_dm0[37] O
gpio_dm0[38] O
gpio_dm0[39] O
gpio_dm0[3] O
gpio_dm0[40] O
gpio_dm0[41] O
gpio_dm0[42] O
gpio_dm0[43] O
gpio_dm0[4] O
gpio_dm0[5] O
gpio_dm0[6] O
gpio_dm0[7] O
gpio_dm0[8] O
gpio_dm0[9] O
gpio_dm1[0] O
gpio_dm1[10] O
gpio_dm1[11] O
gpio_dm1[12] O
gpio_dm1[13] O
gpio_dm1[14] O
gpio_dm1[15] O
gpio_dm1[16] O
gpio_dm1[17] O
gpio_dm1[18] O
gpio_dm1[19] O
gpio_dm1[1] O
gpio_dm1[20] O
gpio_dm1[21] O
gpio_dm1[22] O
gpio_dm1[23] O
gpio_dm1[24] O
gpio_dm1[25] O
gpio_dm1[26] O
gpio_dm1[27] O
gpio_dm1[28] O
gpio_dm1[29] O
gpio_dm1[2] O
gpio_dm1[30] O
gpio_dm1[31] O
gpio_dm1[32] O
gpio_dm1[33] O
gpio_dm1[34] O
gpio_dm1[35] O
gpio_dm1[36] O
gpio_dm1[37] O
gpio_dm1[38] O
gpio_dm1[39] O
gpio_dm1[3] O
gpio_dm1[40] O
gpio_dm1[41] O
gpio_dm1[42] O
gpio_dm1[43] O
gpio_dm1[4] O
gpio_dm1[5] O
gpio_dm1[6] O
gpio_dm1[7] O
gpio_dm1[8] O
gpio_dm1[9] O
gpio_dm2[0] O
gpio_dm2[10] O
gpio_dm2[11] O
gpio_dm2[12] O
gpio_dm2[13] O
gpio_dm2[14] O
gpio_dm2[15] O
gpio_dm2[16] O
gpio_dm2[17] O
gpio_dm2[18] O
gpio_dm2[19] O
gpio_dm2[1] O
gpio_dm2[20] O
gpio_dm2[21] O
gpio_dm2[22] O
gpio_dm2[23] O
gpio_dm2[24] O
gpio_dm2[25] O
gpio_dm2[26] O
gpio_dm2[27] O
gpio_dm2[28] O
gpio_dm2[29] O
gpio_dm2[2] O
gpio_dm2[30] O
gpio_dm2[31] O
gpio_dm2[32] O
gpio_dm2[33] O
gpio_dm2[34] O
gpio_dm2[35] O
gpio_dm2[36] O
gpio_dm2[37] O
gpio_dm2[38] O
gpio_dm2[39] O
gpio_dm2[3] O
gpio_dm2[40] O
gpio_dm2[41] O
gpio_dm2[42] O
gpio_dm2[43] O
gpio_dm2[4] O
gpio_dm2[5] O
gpio_dm2[6] O
gpio_dm2[7] O
gpio_dm2[8] O
gpio_dm2[9] O
gpio_holdover[0] O
gpio_holdover[10] O
gpio_holdover[11] O
gpio_holdover[12] O
gpio_holdover[13] O
gpio_holdover[14] O
gpio_holdover[15] O
gpio_holdover[16] O
gpio_holdover[17] O
gpio_holdover[18] O
gpio_holdover[19] O
gpio_holdover[1] O
gpio_holdover[20] O
gpio_holdover[21] O
gpio_holdover[22] O
gpio_holdover[23] O
gpio_holdover[24] O
gpio_holdover[25] O
gpio_holdover[26] O
gpio_holdover[27] O
gpio_holdover[28] O
gpio_holdover[29] O
gpio_holdover[2] O
gpio_holdover[30] O
gpio_holdover[31] O
gpio_holdover[32] O
gpio_holdover[33] O
gpio_holdover[34] O
gpio_holdover[35] O
gpio_holdover[36] O
gpio_holdover[37] O
gpio_holdover[38] O
gpio_holdover[39] O
gpio_holdover[3] O
gpio_holdover[40] O
gpio_holdover[41] O
gpio_holdover[42] O
gpio_holdover[43] O
gpio_holdover[4] O
gpio_holdover[5] O
gpio_holdover[6] O
gpio_holdover[7] O
gpio_holdover[8] O
gpio_holdover[9] O
gpio_ib_mode_sel[0] O
gpio_ib_mode_sel[10] O
gpio_ib_mode_sel[11] O
gpio_ib_mode_sel[12] O
gpio_ib_mode_sel[13] O
gpio_ib_mode_sel[14] O
gpio_ib_mode_sel[15] O
gpio_ib_mode_sel[16] O
gpio_ib_mode_sel[17] O
gpio_ib_mode_sel[18] O
gpio_ib_mode_sel[19] O
gpio_ib_mode_sel[1] O
gpio_ib_mode_sel[20] O
gpio_ib_mode_sel[21] O
gpio_ib_mode_sel[22] O
gpio_ib_mode_sel[23] O
gpio_ib_mode_sel[24] O
gpio_ib_mode_sel[25] O
gpio_ib_mode_sel[26] O
gpio_ib_mode_sel[27] O
gpio_ib_mode_sel[28] O
gpio_ib_mode_sel[29] O
gpio_ib_mode_sel[2] O
gpio_ib_mode_sel[30] O
gpio_ib_mode_sel[31] O
gpio_ib_mode_sel[32] O
gpio_ib_mode_sel[33] O
gpio_ib_mode_sel[34] O
gpio_ib_mode_sel[35] O
gpio_ib_mode_sel[36] O
gpio_ib_mode_sel[37] O
gpio_ib_mode_sel[38] O
gpio_ib_mode_sel[39] O
gpio_ib_mode_sel[3] O
gpio_ib_mode_sel[40] O
gpio_ib_mode_sel[41] O
gpio_ib_mode_sel[42] O
gpio_ib_mode_sel[43] O
gpio_ib_mode_sel[4] O
gpio_ib_mode_sel[5] O
gpio_ib_mode_sel[6] O
gpio_ib_mode_sel[7] O
gpio_ib_mode_sel[8] O
gpio_ib_mode_sel[9] O
gpio_in[0] I
gpio_in[10] I
gpio_in[11] I
gpio_in[12] I
gpio_in[13] I
gpio_in[14] I
gpio_in[15] I
gpio_in[16] I
gpio_in[17] I
gpio_in[18] I
gpio_in[19] I
gpio_in[1] I
gpio_in[20] I
gpio_in[21] I
gpio_in[22] I
gpio_in[23] I
gpio_in[24] I
gpio_in[25] I
gpio_in[26] I
gpio_in[27] I
gpio_in[28] I
gpio_in[29] I
gpio_in[2] I
gpio_in[30] I
gpio_in[31] I
gpio_in[32] I
gpio_in[33] I
gpio_in[34] I
gpio_in[35] I
gpio_in[36] I
gpio_in[37] I
gpio_in[38] I
gpio_in[39] I
gpio_in[3] I
gpio_in[40] I
gpio_in[41] I
gpio_in[42] I
gpio_in[43] I
gpio_in[4] I
gpio_in[5] I
gpio_in[6] I
gpio_in[7] I
gpio_in[8] I
gpio_in[9] I
gpio_in_h[0] I
gpio_in_h[10] I
gpio_in_h[11] I
gpio_in_h[12] I
gpio_in_h[13] I
gpio_in_h[14] I
gpio_in_h[15] I
gpio_in_h[16] I
gpio_in_h[17] I
gpio_in_h[18] I
gpio_in_h[19] I
gpio_in_h[1] I
gpio_in_h[20] I
gpio_in_h[21] I
gpio_in_h[22] I
gpio_in_h[23] I
gpio_in_h[24] I
gpio_in_h[25] I
gpio_in_h[26] I
gpio_in_h[27] I
gpio_in_h[28] I
gpio_in_h[29] I
gpio_in_h[2] I
gpio_in_h[30] I
gpio_in_h[31] I
gpio_in_h[32] I
gpio_in_h[33] I
gpio_in_h[34] I
gpio_in_h[35] I
gpio_in_h[36] I
gpio_in_h[37] I
gpio_in_h[38] I
gpio_in_h[39] I
gpio_in_h[3] I
gpio_in_h[40] I
gpio_in_h[41] I
gpio_in_h[42] I
gpio_in_h[43] I
gpio_in_h[4] I
gpio_in_h[5] I
gpio_in_h[6] I
gpio_in_h[7] I
gpio_in_h[8] I
gpio_in_h[9] I
gpio_inp_dis[0] O
gpio_inp_dis[10] O
gpio_inp_dis[11] O
gpio_inp_dis[12] O
gpio_inp_dis[13] O
gpio_inp_dis[14] O
gpio_inp_dis[15] O
gpio_inp_dis[16] O
gpio_inp_dis[17] O
gpio_inp_dis[18] O
gpio_inp_dis[19] O
gpio_inp_dis[1] O
gpio_inp_dis[20] O
gpio_inp_dis[21] O
gpio_inp_dis[22] O
gpio_inp_dis[23] O
gpio_inp_dis[24] O
gpio_inp_dis[25] O
gpio_inp_dis[26] O
gpio_inp_dis[27] O
gpio_inp_dis[28] O
gpio_inp_dis[29] O
gpio_inp_dis[2] O
gpio_inp_dis[30] O
gpio_inp_dis[31] O
gpio_inp_dis[32] O
gpio_inp_dis[33] O
gpio_inp_dis[34] O
gpio_inp_dis[35] O
gpio_inp_dis[36] O
gpio_inp_dis[37] O
gpio_inp_dis[38] O
gpio_inp_dis[39] O
gpio_inp_dis[3] O
gpio_inp_dis[40] O
gpio_inp_dis[41] O
gpio_inp_dis[42] O
gpio_inp_dis[43] O
gpio_inp_dis[4] O
gpio_inp_dis[5] O
gpio_inp_dis[6] O
gpio_inp_dis[7] O
gpio_inp_dis[8] O
gpio_inp_dis[9] O
gpio_loopback_one[0] I
gpio_loopback_one[10] I
gpio_loopback_one[11] I
gpio_loopback_one[12] I
gpio_loopback_one[13] I
gpio_loopback_one[14] I
gpio_loopback_one[15] I
gpio_loopback_one[16] I
gpio_loopback_one[17] I
gpio_loopback_one[18] I
gpio_loopback_one[19] I
gpio_loopback_one[1] I
gpio_loopback_one[20] I
gpio_loopback_one[21] I
gpio_loopback_one[22] I
gpio_loopback_one[23] I
gpio_loopback_one[24] I
gpio_loopback_one[25] I
gpio_loopback_one[26] I
gpio_loopback_one[27] I
gpio_loopback_one[28] I
gpio_loopback_one[29] I
gpio_loopback_one[2] I
gpio_loopback_one[30] I
gpio_loopback_one[31] I
gpio_loopback_one[32] I
gpio_loopback_one[33] I
gpio_loopback_one[34] I
gpio_loopback_one[35] I
gpio_loopback_one[36] I
gpio_loopback_one[37] I
gpio_loopback_one[38] I
gpio_loopback_one[39] I
gpio_loopback_one[3] I
gpio_loopback_one[40] I
gpio_loopback_one[41] I
gpio_loopback_one[42] I
gpio_loopback_one[43] I
gpio_loopback_one[4] I
gpio_loopback_one[5] I
gpio_loopback_one[6] I
gpio_loopback_one[7] I
gpio_loopback_one[8] I
gpio_loopback_one[9] I
gpio_loopback_zero[0] I
gpio_loopback_zero[10] I
gpio_loopback_zero[11] I
gpio_loopback_zero[12] I
gpio_loopback_zero[13] I
gpio_loopback_zero[14] I
gpio_loopback_zero[15] I
gpio_loopback_zero[16] I
gpio_loopback_zero[17] I
gpio_loopback_zero[18] I
gpio_loopback_zero[19] I
gpio_loopback_zero[1] I
gpio_loopback_zero[20] I
gpio_loopback_zero[21] I
gpio_loopback_zero[22] I
gpio_loopback_zero[23] I
gpio_loopback_zero[24] I
gpio_loopback_zero[25] I
gpio_loopback_zero[26] I
gpio_loopback_zero[27] I
gpio_loopback_zero[28] I
gpio_loopback_zero[29] I
gpio_loopback_zero[2] I
gpio_loopback_zero[30] I
gpio_loopback_zero[31] I
gpio_loopback_zero[32] I
gpio_loopback_zero[33] I
gpio_loopback_zero[34] I
gpio_loopback_zero[35] I
gpio_loopback_zero[36] I
gpio_loopback_zero[37] I
gpio_loopback_zero[38] I
gpio_loopback_zero[39] I
gpio_loopback_zero[3] I
gpio_loopback_zero[40] I
gpio_loopback_zero[41] I
gpio_loopback_zero[42] I
gpio_loopback_zero[43] I
gpio_loopback_zero[4] I
gpio_loopback_zero[5] I
gpio_loopback_zero[6] I
gpio_loopback_zero[7] I
gpio_loopback_zero[8] I
gpio_loopback_zero[9] I
gpio_oeb[0] O
gpio_oeb[10] O
gpio_oeb[11] O
gpio_oeb[12] O
gpio_oeb[13] O
gpio_oeb[14] O
gpio_oeb[15] O
gpio_oeb[16] O
gpio_oeb[17] O
gpio_oeb[18] O
gpio_oeb[19] O
gpio_oeb[1] O
gpio_oeb[20] O
gpio_oeb[21] O
gpio_oeb[22] O
gpio_oeb[23] O
gpio_oeb[24] O
gpio_oeb[25] O
gpio_oeb[26] O
gpio_oeb[27] O
gpio_oeb[28] O
gpio_oeb[29] O
gpio_oeb[2] O
gpio_oeb[30] O
gpio_oeb[31] O
gpio_oeb[32] O
gpio_oeb[33] O
gpio_oeb[34] O
gpio_oeb[35] O
gpio_oeb[36] O
gpio_oeb[37] O
gpio_oeb[38] O
gpio_oeb[39] O
gpio_oeb[3] O
gpio_oeb[40] O
gpio_oeb[41] O
gpio_oeb[42] O
gpio_oeb[43] O
gpio_oeb[4] O
gpio_oeb[5] O
gpio_oeb[6] O
gpio_oeb[7] O
gpio_oeb[8] O
gpio_oeb[9] O
gpio_out[0] O
gpio_out[10] O
gpio_out[11] O
gpio_out[12] O
gpio_out[13] O
gpio_out[14] O
gpio_out[15] O
gpio_out[16] O
gpio_out[17] O
gpio_out[18] O
gpio_out[19] O
gpio_out[1] O
gpio_out[20] O
gpio_out[21] O
gpio_out[22] O
gpio_out[23] O
gpio_out[24] O
gpio_out[25] O
gpio_out[26] O
gpio_out[27] O
gpio_out[28] O
gpio_out[29] O
gpio_out[2] O
gpio_out[30] O
gpio_out[31] O
gpio_out[32] O
gpio_out[33] O
gpio_out[34] O
gpio_out[35] O
gpio_out[36] O
gpio_out[37] O
gpio_out[38] O
gpio_out[39] O
gpio_out[3] O
gpio_out[40] O
gpio_out[41] O
gpio_out[42] O
gpio_out[43] O
gpio_out[4] O
gpio_out[5] O
gpio_out[6] O
gpio_out[7] O
gpio_out[8] O
gpio_out[9] O
gpio_slow_sel[0] O
gpio_slow_sel[10] O
gpio_slow_sel[11] O
gpio_slow_sel[12] O
gpio_slow_sel[13] O
gpio_slow_sel[14] O
gpio_slow_sel[15] O
gpio_slow_sel[16] O
gpio_slow_sel[17] O
gpio_slow_sel[18] O
gpio_slow_sel[19] O
gpio_slow_sel[1] O
gpio_slow_sel[20] O
gpio_slow_sel[21] O
gpio_slow_sel[22] O
gpio_slow_sel[23] O
gpio_slow_sel[24] O
gpio_slow_sel[25] O
gpio_slow_sel[26] O
gpio_slow_sel[27] O
gpio_slow_sel[28] O
gpio_slow_sel[29] O
gpio_slow_sel[2] O
gpio_slow_sel[30] O
gpio_slow_sel[31] O
gpio_slow_sel[32] O
gpio_slow_sel[33] O
gpio_slow_sel[34] O
gpio_slow_sel[35] O
gpio_slow_sel[36] O
gpio_slow_sel[37] O
gpio_slow_sel[38] O
gpio_slow_sel[39] O
gpio_slow_sel[3] O
gpio_slow_sel[40] O
gpio_slow_sel[41] O
gpio_slow_sel[42] O
gpio_slow_sel[43] O
gpio_slow_sel[4] O
gpio_slow_sel[5] O
gpio_slow_sel[6] O
gpio_slow_sel[7] O
gpio_slow_sel[8] O
gpio_slow_sel[9] O
gpio_vtrip_sel[0] O
gpio_vtrip_sel[10] O
gpio_vtrip_sel[11] O
gpio_vtrip_sel[12] O
gpio_vtrip_sel[13] O
gpio_vtrip_sel[14] O
gpio_vtrip_sel[15] O
gpio_vtrip_sel[16] O
gpio_vtrip_sel[17] O
gpio_vtrip_sel[18] O
gpio_vtrip_sel[19] O
gpio_vtrip_sel[1] O
gpio_vtrip_sel[20] O
gpio_vtrip_sel[21] O
gpio_vtrip_sel[22] O
gpio_vtrip_sel[23] O
gpio_vtrip_sel[24] O
gpio_vtrip_sel[25] O
gpio_vtrip_sel[26] O
gpio_vtrip_sel[27] O
gpio_vtrip_sel[28] O
gpio_vtrip_sel[29] O
gpio_vtrip_sel[2] O
gpio_vtrip_sel[30] O
gpio_vtrip_sel[31] O
gpio_vtrip_sel[32] O
gpio_vtrip_sel[33] O
gpio_vtrip_sel[34] O
gpio_vtrip_sel[35] O
gpio_vtrip_sel[36] O
gpio_vtrip_sel[37] O
gpio_vtrip_sel[38] O
gpio_vtrip_sel[39] O
gpio_vtrip_sel[3] O
gpio_vtrip_sel[40] O
gpio_vtrip_sel[41] O
gpio_vtrip_sel[42] O
gpio_vtrip_sel[43] O
gpio_vtrip_sel[4] O
gpio_vtrip_sel[5] O
gpio_vtrip_sel[6] O
gpio_vtrip_sel[7] O
gpio_vtrip_sel[8] O
gpio_vtrip_sel[9] O
mask_rev[0] I
mask_rev[10] I
mask_rev[11] I
mask_rev[12] I
mask_rev[13] I
mask_rev[14] I
mask_rev[15] I
mask_rev[16] I
mask_rev[17] I
mask_rev[18] I
mask_rev[19] I
mask_rev[1] I
mask_rev[20] I
mask_rev[21] I
mask_rev[22] I
mask_rev[23] I
mask_rev[24] I
mask_rev[25] I
mask_rev[26] I
mask_rev[27] I
mask_rev[28] I
mask_rev[29] I
mask_rev[2] I
mask_rev[30] I
mask_rev[31] I
mask_rev[3] I
mask_rev[4] I
mask_rev[5] I
mask_rev[6] I
mask_rev[7] I
mask_rev[8] I
mask_rev[9] I
por_l I
porb_h I
porb_l I
resetb_h I
resetb_l I

*D_NET *89 0.0129655
*CONN
*P gpio_analog_pol[0] O
*P gpio_inp_dis[0] O
*P gpio_analog_en[0] O
*P gpio_dm1[0] O
*P gpio_slow_sel[0] O
*P gpio_analog_sel[0] O
*P gpio_dm2[0] O
*P gpio_holdover[0] O
*P gpio_out[0] O
*P gpio_vtrip_sel[0] O
*P gpio_ib_mode_sel[0] O
*P gpio_loopback_zero[0] I
*CAP
1 gpio_analog_pol[0] 0.000128776
2 gpio_inp_dis[0] 0.000162188
3 gpio_analog_en[0] 2.50585e-05
4 gpio_dm1[0] 2.50585e-05
5 gpio_slow_sel[0] 0.000738801
6 gpio_analog_sel[0] 0.000964181
7 gpio_dm2[0] 0.00032699
8 gpio_holdover[0] 0.000303634
9 gpio_out[0] 0.000601109
10 gpio_vtrip_sel[0] 0.000611209
11 gpio_ib_mode_sel[0] 0.00218203
12 gpio_loopback_zero[0] 0.00203179
13 *89:45 0.00121716
14 *89:43 0.00128164
15 *89:41 0.00163738
16 gpio_ib_mode_sel[0] gpio_dm0[0] 0.000286417
17 gpio_ib_mode_sel[0] gpio_oeb[0] 0.000442023
*RES
1 gpio_loopback_zero[0] gpio_ib_mode_sel[0] 11.4683 
2 gpio_ib_mode_sel[0] gpio_vtrip_sel[0] 0.504467 
3 gpio_vtrip_sel[0] gpio_out[0] 1.44133 
4 gpio_out[0] gpio_holdover[0] 0.4324 
5 gpio_holdover[0] gpio_dm2[0] 0.504467 
6 gpio_dm2[0] gpio_analog_sel[0] 0.504467 
7 gpio_analog_sel[0] *89:41 5.4733 
8 *89:41 *89:43 1.48833 
9 *89:43 *89:45 0.983867 
10 *89:45 gpio_slow_sel[0] 4.96883 
11 *89:45 gpio_dm1[0] 3.4805 
12 *89:43 gpio_analog_en[0] 3.4805 
13 *89:41 gpio_inp_dis[0] 3.4805 
14 gpio_inp_dis[0] gpio_analog_pol[0] 0.4324 
*END

*D_NET *90 0.0132623
*CONN
*P gpio_holdover[10] O
*P gpio_analog_sel[10] O
*P gpio_slow_sel[10] O
*P gpio_analog_en[10] O
*P gpio_dm0[10] O
*P gpio_analog_pol[10] O
*P gpio_vtrip_sel[10] O
*P gpio_ib_mode_sel[10] O
*P gpio_oeb[10] O
*P gpio_loopback_zero[10] I
*CAP
1 gpio_holdover[10] 2.44923e-05
2 gpio_analog_sel[10] 3.42679e-05
3 gpio_slow_sel[10] 0.00131465
4 gpio_analog_en[10] 0.00147446
5 gpio_dm0[10] 0.000397615
6 gpio_analog_pol[10] 0.00124845
7 gpio_vtrip_sel[10] 0.00116532
8 gpio_ib_mode_sel[10] 0.000313257
9 gpio_oeb[10] 0.00142399
10 gpio_loopback_zero[10] 0.00127375
11 *90:31 0.00155207
12 *90:29 0.00153396
13 gpio_analog_en[10] gpio_dm1[10] 0.000205285
14 gpio_analog_pol[10] gpio_dm1[10] 3.74594e-06
15 gpio_analog_pol[10] gpio_inp_dis[10] 0.000639645
16 gpio_analog_sel[10] gpio_dm2[10] 2.10087e-06
17 gpio_analog_sel[10] gpio_inp_dis[10] 1.72239e-05
18 gpio_holdover[10] gpio_dm2[10] 7.7857e-06
19 gpio_holdover[10] gpio_out[10] 1.43627e-05
20 gpio_oeb[10] gpio_dm2[10] 0.00032312
21 *90:31 gpio_inp_dis[10] 0.000292775
*RES
1 gpio_loopback_zero[10] gpio_oeb[10] 10.0238 
2 gpio_oeb[10] gpio_ib_mode_sel[10] 0.504467 
3 gpio_ib_mode_sel[10] gpio_vtrip_sel[10] 0.504467 
4 gpio_vtrip_sel[10] *90:29 5.40123 
5 *90:29 *90:31 1.05593 
6 *90:31 gpio_analog_pol[10] 5.9057 
7 gpio_analog_pol[10] gpio_dm0[10] 0.504467 
8 gpio_dm0[10] gpio_analog_en[10] 0.504467 
9 gpio_analog_en[10] gpio_slow_sel[10] 9.3862 
10 *90:31 gpio_analog_sel[10] 3.4805 
11 *90:29 gpio_holdover[10] 3.4805 
*END

*D_NET *91 0.0138881
*CONN
*P gpio_holdover[11] O
*P gpio_analog_sel[11] O
*P gpio_slow_sel[11] O
*P gpio_analog_en[11] O
*P gpio_dm0[11] O
*P gpio_analog_pol[11] O
*P gpio_vtrip_sel[11] O
*P gpio_ib_mode_sel[11] O
*P gpio_oeb[11] O
*P gpio_loopback_zero[11] I
*CAP
1 gpio_holdover[11] 2.84337e-05
2 gpio_analog_sel[11] 3.08985e-05
3 gpio_slow_sel[11] 0.00123565
4 gpio_analog_en[11] 0.00144907
5 gpio_dm0[11] 0.000422096
6 gpio_analog_pol[11] 0.00137929
7 gpio_vtrip_sel[11] 0.00113691
8 gpio_ib_mode_sel[11] 0.000517202
9 gpio_oeb[11] 0.00176258
10 gpio_loopback_zero[11] 0.00150522
11 *91:31 0.00163946
12 *91:29 0.00134344
13 gpio_analog_pol[11] gpio_inp_dis[11] 3.55345e-06
14 gpio_analog_pol[11] *136:13 0.000198909
15 gpio_analog_sel[11] gpio_dm2[11] 1.52243e-05
16 gpio_holdover[11] gpio_out[11] 2.15324e-05
17 gpio_oeb[11] *136:11 0.000220995
18 gpio_slow_sel[11] gpio_dm1[11] 0.000233208
19 gpio_slow_sel[11] gpio_out[11] 0.000118344
20 gpio_slow_sel[11] *266:19 1.07628e-05
21 *91:29 *136:11 0.000331509
22 *91:31 gpio_dm2[11] 0.000283784
*RES
1 gpio_loopback_zero[11] gpio_oeb[11] 10.0238 
2 gpio_oeb[11] gpio_ib_mode_sel[11] 0.504467 
3 gpio_ib_mode_sel[11] gpio_vtrip_sel[11] 0.504467 
4 gpio_vtrip_sel[11] *91:29 5.40123 
5 *91:29 *91:31 1.05593 
6 *91:31 gpio_analog_pol[11] 5.9057 
7 gpio_analog_pol[11] gpio_dm0[11] 0.504467 
8 gpio_dm0[11] gpio_analog_en[11] 0.504467 
9 gpio_analog_en[11] gpio_slow_sel[11] 9.81547 
10 *91:31 gpio_analog_sel[11] 3.4805 
11 *91:29 gpio_holdover[11] 3.4805 
*END

*D_NET *92 0.0142144
*CONN
*P gpio_holdover[12] O
*P gpio_analog_sel[12] O
*P gpio_slow_sel[12] O
*P gpio_analog_en[12] O
*P gpio_dm0[12] O
*P gpio_analog_pol[12] O
*P gpio_vtrip_sel[12] O
*P gpio_ib_mode_sel[12] O
*P gpio_oeb[12] O
*P gpio_loopback_zero[12] I
*CAP
1 gpio_holdover[12] 2.41134e-05
2 gpio_analog_sel[12] 3.51913e-05
3 gpio_slow_sel[12] 0.00118393
4 gpio_analog_en[12] 0.00143121
5 gpio_dm0[12] 0.00049069
6 gpio_analog_pol[12] 0.00137906
7 gpio_vtrip_sel[12] 0.00121556
8 gpio_ib_mode_sel[12] 0.00049069
9 gpio_oeb[12] 0.00166025
10 gpio_loopback_zero[12] 0.00141335
11 *92:31 0.00174011
12 *92:29 0.00156514
13 gpio_analog_pol[12] gpio_inp_dis[12] 5.33062e-06
14 gpio_analog_pol[12] *137:13 0.000397817
15 gpio_holdover[12] gpio_dm2[12] 1.75238e-05
16 gpio_holdover[12] gpio_out[12] 1.99458e-05
17 gpio_oeb[12] *137:11 0.0002652
18 gpio_slow_sel[12] gpio_dm1[12] 0.0002422
19 gpio_slow_sel[12] *267:19 3.37702e-05
20 *92:29 *137:11 0.000309406
21 *92:31 gpio_dm2[12] 0.000293899
*RES
1 gpio_loopback_zero[12] gpio_oeb[12] 10.0238 
2 gpio_oeb[12] gpio_ib_mode_sel[12] 0.504467 
3 gpio_ib_mode_sel[12] gpio_vtrip_sel[12] 0.504467 
4 gpio_vtrip_sel[12] *92:29 5.40123 
5 *92:29 *92:31 1.05593 
6 *92:31 gpio_analog_pol[12] 5.9057 
7 gpio_analog_pol[12] gpio_dm0[12] 0.504467 
8 gpio_dm0[12] gpio_analog_en[12] 0.504467 
9 gpio_analog_en[12] gpio_slow_sel[12] 17.4264 
10 *92:31 gpio_analog_sel[12] 3.4805 
11 *92:29 gpio_holdover[12] 3.4805 
*END

*D_NET *93 0.0114119
*CONN
*P gpio_dm1[13] O
*P gpio_slow_sel[13] O
*P gpio_analog_en[13] O
*P gpio_dm0[13] O
*P gpio_analog_pol[13] O
*P gpio_analog_sel[13] O
*P gpio_dm2[13] O
*P gpio_holdover[13] O
*P gpio_out[13] O
*P gpio_vtrip_sel[13] O
*P gpio_ib_mode_sel[13] O
*P gpio_loopback_zero[13] I
*CAP
1 gpio_dm1[13] 2.50585e-05
2 gpio_slow_sel[13] 0.000636494
3 gpio_analog_en[13] 0.000542017
4 gpio_dm0[13] 0.000300478
5 gpio_analog_pol[13] 0.00137155
6 gpio_analog_sel[13] 0.00138481
7 gpio_dm2[13] 0.000325607
8 gpio_holdover[13] 0.000290888
9 gpio_out[13] 0.000558031
10 gpio_vtrip_sel[13] 0.000579494
11 gpio_ib_mode_sel[13] 0.00181535
12 gpio_loopback_zero[13] 0.00166511
13 *93:63 0.00105333
14 gpio_analog_pol[13] gpio_inp_dis[13] 9.217e-06
15 gpio_ib_mode_sel[13] gpio_inp_dis[13] 0.000275633
16 gpio_ib_mode_sel[13] gpio_oeb[13] 0.000578806
*RES
1 gpio_loopback_zero[13] gpio_ib_mode_sel[13] 10.4696 
2 gpio_ib_mode_sel[13] gpio_vtrip_sel[13] 0.504467 
3 gpio_vtrip_sel[13] gpio_out[13] 1.44133 