*SPEF "ieee 1481-1999"
*DESIGN "user_proj_timer"
*DATE "18:58:20 Wednesday April 15, 2026"
*VENDOR "The OpenROAD Project"
*PROGRAM "OpenROAD"
*VERSION "edf00dff99f6c40d67a30c0e22a8191c5d2ed9d6"
*DESIGN_FLOW "NAME_SCOPE LOCAL" "PIN_CAP NONE"
*DIVIDER /
*DELIMITER :
*BUS_DELIMITER []
*T_UNIT 1 NS
*C_UNIT 1 PF
*R_UNIT 1 OHM
*L_UNIT 1 HENRY

*NAME_MAP
*1 io_out[0]
*2 io_out[10]
*3 io_out[1]
*4 io_out[2]
*5 io_out[3]
*6 io_out[4]
*7 io_out[5]
*8 io_out[6]
*9 io_out[7]
*10 io_out[8]
*11 io_out[9]
*14 wb_clk_i
*15 wb_rst_i
*16 _000_
*17 _001_
*18 _002_
*19 _003_
*20 _004_
*21 _005_
*22 _006_
*23 _007_
*24 _008_
*25 _009_
*26 _010_
*27 _011_
*28 _012_
*29 _013_
*30 _014_
*31 _015_
*32 _016_
*33 _017_
*34 _018_
*35 _019_
*36 _020_
*37 _021_
*38 _022_
*39 _023_
*40 _024_
*41 _025_
*42 _026_
*43 _027_
*44 _028_
*45 _029_
*46 _030_
*47 _031_
*48 _032_
*49 _033_
*50 _034_
*51 _035_
*52 _036_
*53 _037_
*54 _038_
*55 _039_
*56 _040_
*57 _041_
*58 _042_
*59 _043_
*60 _044_
*61 _045_
*62 _046_
*63 _047_
*64 _048_
*65 _049_
*66 _050_
*67 _051_
*68 _052_
*69 _053_
*70 _054_
*71 _055_
*72 _056_
*73 _057_
*74 _058_
*75 _059_
*76 _060_
*77 _061_
*78 _062_
*79 _063_
*80 _064_
*81 _065_
*82 _066_
*83 _067_
*84 _068_
*85 _069_
*86 _070_
*87 _071_
*88 _072_
*89 _073_
*90 _074_
*91 _075_
*92 _076_
*93 _077_
*94 _078_
*95 _079_
*96 _080_
*97 _081_
*98 _082_
*99 _083_
*100 _084_
*101 _085_
*102 _086_
*103 _087_
*104 _088_
*105 _089_
*106 _090_
*107 _091_
*108 _092_
*109 _093_
*110 _094_
*111 _095_
*112 _096_
*113 _097_
*114 _098_
*115 _099_
*116 _100_
*117 _101_
*118 _102_
*119 _103_
*120 _104_
*121 _105_
*122 _106_
*123 _107_
*124 _108_
*125 _109_
*126 _110_
*127 _111_
*128 _112_
*129 _113_
*130 _114_
*131 _115_
*132 _116_
*133 _117_
*134 _118_
*135 _119_
*136 _120_
*137 _121_
*138 _122_
*139 _123_
*140 _124_
*141 _125_
*142 _126_
*143 _127_
*144 _128_
*145 _129_
*146 _130_
*147 _131_
*148 _132_
*149 _133_
*150 _134_
*151 _135_
*152 _136_
*153 _137_
*154 _138_
*155 _139_
*156 _140_
*157 _141_
*158 _142_
*159 _143_
*160 _144_
*161 _145_
*162 _146_
*163 _147_
*164 _148_
*165 _149_
*166 _150_
*167 _151_
*168 _152_
*169 _153_
*170 _154_
*171 _155_
*172 _156_
*173 _157_
*174 _158_
*175 _159_
*176 _160_
*177 _161_
*178 _162_
*179 _163_
*180 _164_
*181 _165_
*182 _166_
*183 _167_
*184 _168_
*185 _169_
*186 _170_
*187 _171_
*188 _172_
*189 _173_
*190 _174_
*191 _175_
*192 _176_
*193 _177_
*194 _178_
*195 _179_
*196 _180_
*197 _181_
*198 _182_
*199 _183_
*200 _184_
*201 _185_
*202 _186_
*203 _187_
*204 _188_
*205 _189_
*206 _190_
*207 _191_
*208 _192_
*209 _193_
*210 _194_
*211 _195_
*212 _196_
*213 _197_
*214 _198_
*215 _199_
*216 _200_
*217 _201_
*218 _202_
*219 _203_
*220 _204_
*221 _205_
*222 _206_
*223 _207_
*224 _208_
*225 _209_
*226 _210_
*227 _211_
*228 _212_
*229 _213_
*230 _214_
*231 _215_
*232 _216_
*233 _217_
*234 _218_
*235 _219_
*236 _220_
*237 _221_
*238 _222_
*239 _223_
*240 _224_
*241 _225_
*242 _226_
*243 _227_
*244 _228_
*245 _229_
*246 _230_
*247 _231_
*248 _232_
*249 _233_
*250 _234_
*251 _235_
*252 _236_
*253 _237_
*254 _238_
*255 _239_
*256 _240_
*257 _241_
*258 _242_
*259 _243_
*260 _244_
*261 _245_
*262 _246_
*263 _247_
*264 _248_
*265 _249_
*266 _250_
*267 _251_
*268 _252_
*269 _253_
*270 _254_
*271 _255_
*272 _256_
*273 _257_
*274 _258_
*275 _259_
*276 _260_
*277 _261_
*278 _262_
*279 _263_
*280 _264_
*281 _265_
*282 _266_
*283 _267_
*284 _268_
*285 _269_
*286 _270_
*287 _271_
*288 _272_
*289 _273_
*290 _274_
*291 _275_
*292 _276_
*293 _277_
*294 _278_
*295 _279_
*296 _280_
*297 _281_
*298 _282_
*299 _283_
*300 _284_
*301 _285_
*302 _286_
*303 _287_
*304 _288_
*305 _289_
*306 _290_
*307 _291_
*308 _292_
*309 _293_
*310 _294_
*311 _295_
*312 _296_
*313 _297_
*314 _298_
*315 _299_
*316 _300_
*317 _301_
*318 _302_
*319 _303_
*320 _304_
*321 _305_
*322 _306_
*323 _307_
*324 _308_
*325 _309_
*326 _310_
*327 _311_
*328 _312_
*329 _313_
*330 _314_
*331 _315_
*332 _316_
*333 _317_
*334 _318_
*335 _319_
*336 _320_
*337 _321_
*338 _322_
*339 _323_
*340 _324_
*341 _325_
*342 _326_
*343 _327_
*344 _328_
*345 _329_
*346 _330_
*347 _331_
*348 clknet_0_wb_clk_i
*349 clknet_3_0__leaf_wb_clk_i
*350 clknet_3_1__leaf_wb_clk_i
*351 clknet_3_2__leaf_wb_clk_i
*352 clknet_3_3__leaf_wb_clk_i
*353 clknet_3_4__leaf_wb_clk_i
*354 clknet_3_5__leaf_wb_clk_i
*355 clknet_3_6__leaf_wb_clk_i
*356 clknet_3_7__leaf_wb_clk_i
*357 net1
*358 net10
*359 net100
*360 net101
*361 net102
*362 net103
*363 net104
*364 net105
*365 net106
*366 net107
*367 net108
*368 net109
*369 net11
*370 net110
*371 net111
*372 net112
*373 net113
*374 net114
*375 net115
*376 net116
*377 net117
*378 net118
*379 net119
*380 net12
*381 net120
*382 net121
*383 net122
*384 net123
*385 net124
*386 net125
*387 net126
*388 net127
*389 net128
*390 net129
*391 net13
*392 net130
*393 net131
*394 net132
*395 net133
*396 net134
*397 net135
*398 net136
*399 net137
*400 net138
*401 net139
*402 net14
*403 net140
*404 net141
*405 net142
*406 net143
*407 net144
*408 net145
*409 net146
*410 net147
*411 net148
*412 net149
*413 net15
*414 net150
*415 net151
*416 net152
*417 net153
*418 net154
*419 net155
*420 net156
*421 net157
*422 net158
*423 net159
*424 net16
*425 net160
*426 net161
*427 net162
*428 net163
*429 net164
*430 net165
*431 net166
*432 net167
*433 net168
*434 net169
*435 net17
*436 net170
*437 net171
*438 net172
*439 net173
*440 net174
*441 net175
*442 net176
*443 net177
*444 net178
*445 net179
*446 net18
*447 net180
*448 net181
*449 net182
*450 net183
*451 net184
*452 net185
*453 net186
*454 net19
*455 net2
*456 net20
*457 net21
*458 net22
*459 net23
*460 net24
*461 net25
*462 net26
*463 net27
*464 net28
*465 net29
*466 net3
*467 net30
*468 net31
*469 net32
*470 net33
*471 net34
*472 net35
*473 net36
*474 net37
*475 net38
*476 net39
*477 net4
*478 net40
*479 net41
*480 net42
*481 net43
*482 net44
*483 net45
*484 net46
*485 net47
*486 net48
*487 net49
*488 net5
*489 net50
*490 net51
*491 net52
*492 net53
*493 net54
*494 net55
*495 net56
*496 net57
*497 net58
*498 net59
*499 net6
*500 net60
*501 net61
*502 net62
*503 net63
*504 net64
*505 net65
*506 net66
*507 net67
*508 net68
*509 net69
*510 net7
*511 net70
*512 net71
*513 net72
*514 net73
*515 net74
*516 net75
*517 net76
*518 net77
*519 net78
*520 net79
*521 net8
*522 net80
*523 net81
*524 net82
*525 net83
*526 net84
*527 net85
*528 net86
*529 net87
*530 net88
*531 net89
*532 net9
*533 net90
*534 net91
*535 net92
*536 net93
*537 net94
*538 net95
*539 net96
*540 net97
*541 net98
*542 net99
*543 timer\.dig_cnt\[0\]
*544 timer\.dig_cnt\[1\]
*545 timer\.min_ones\[0\]
*546 timer\.min_ones\[1\]
*547 timer\.min_ones\[2\]
*548 timer\.min_ones\[3\]
*549 timer\.min_tens\[0\]
*550 timer\.min_tens\[1\]
*551 timer\.min_tens\[2\]
*552 timer\.min_tens\[3\]
*553 timer\.scan
*554 timer\.scan_div\[0\]
*555 timer\.scan_div\[10\]
*556 timer\.scan_div\[11\]
*557 timer\.scan_div\[12\]
*558 timer\.scan_div\[13\]
*559 timer\.scan_div\[14\]
*560 timer\.scan_div\[15\]
*561 timer\.scan_div\[16\]
*562 timer\.scan_div\[17\]
*563 timer\.scan_div\[18\]
*564 timer\.scan_div\[19\]
*565 timer\.scan_div\[1\]
*566 timer\.scan_div\[20\]
*567 timer\.scan_div\[21\]
*568 timer\.scan_div\[22\]
*569 timer\.scan_div\[23\]
*570 timer\.scan_div\[24\]
*571 timer\.scan_div\[25\]
*572 timer\.scan_div\[26\]
*573 timer\.scan_div\[27\]
*574 timer\.scan_div\[28\]
*575 timer\.scan_div\[29\]
*576 timer\.scan_div\[2\]
*577 timer\.scan_div\[30\]
*578 timer\.scan_div\[31\]
*579 timer\.scan_div\[3\]
*580 timer\.scan_div\[4\]
*581 timer\.scan_div\[5\]
*582 timer\.scan_div\[6\]
*583 timer\.scan_div\[7\]
*584 timer\.scan_div\[8\]
*585 timer\.scan_div\[9\]
*586 timer\.sec
*587 timer\.sec_div\[0\]
*588 timer\.sec_div\[10\]
*589 timer\.sec_div\[11\]
*590 timer\.sec_div\[12\]
*591 timer\.sec_div\[13\]
*592 timer\.sec_div\[14\]
*593 timer\.sec_div\[15\]
*594 timer\.sec_div\[16\]
*595 timer\.sec_div\[17\]
*596 timer\.sec_div\[18\]
*597 timer\.sec_div\[19\]
*598 timer\.sec_div\[1\]
*599 timer\.sec_div\[20\]
*600 timer\.sec_div\[21\]
*601 timer\.sec_div\[22\]
*602 timer\.sec_div\[23\]
*603 timer\.sec_div\[24\]
*604 timer\.sec_div\[25\]
*605 timer\.sec_div\[26\]
*606 timer\.sec_div\[27\]
*607 timer\.sec_div\[28\]
*608 timer\.sec_div\[29\]
*609 timer\.sec_div\[2\]
*610 timer\.sec_div\[30\]
*611 timer\.sec_div\[31\]
*612 timer\.sec_div\[3\]
*613 timer\.sec_div\[4\]
*614 timer\.sec_div\[5\]
*615 timer\.sec_div\[6\]
*616 timer\.sec_div\[7\]
*617 timer\.sec_div\[8\]
*618 timer\.sec_div\[9\]
*619 timer\.sec_ones\[0\]
*620 timer\.sec_ones\[1\]
*621 timer\.sec_ones\[2\]
*622 timer\.sec_ones\[3\]
*623 timer\.sec_tens\[0\]
*624 timer\.sec_tens\[1\]
*625 timer\.sec_tens\[2\]
*626 timer\.sec_tens\[3\]
*627 ANTENNA__355__Y
*628 ANTENNA__356__Y
*629 ANTENNA__563__X
*630 ANTENNA__565__Y
*631 ANTENNA__569__C1
*632 ANTENNA__571__A2
*633 ANTENNA__572__A2
*634 ANTENNA__575__C1
*635 ANTENNA__577__A2
*636 ANTENNA__579__A2
*637 ANTENNA__579__B1
*638 ANTENNA__580__A2
*639 ANTENNA__580__B1
*640 ANTENNA__584__Y
*641 ANTENNA__586__X
*642 ANTENNA__588__X
*643 ANTENNA__589__X
*644 ANTENNA__590__Y
*645 ANTENNA__591__X
*646 ANTENNA__612__A
*647 ANTENNA__613__A
*648 ANTENNA__614__A
*649 ANTENNA__615__A
*650 ANTENNA__616__A
*651 ANTENNA__617__A
*652 ANTENNA__629__A
*653 ANTENNA__630__A
*654 ANTENNA__631__A
*655 ANTENNA__633__A
*656 ANTENNA__634__A
*657 ANTENNA__635__A
*658 ANTENNA__636__A
*659 ANTENNA__646__A
*660 ANTENNA__647__A
*661 ANTENNA__648__A
*662 ANTENNA__649__A
*663 ANTENNA__650__A
*664 ANTENNA__651__A
*665 ANTENNA__654__A
*666 ANTENNA__664__A
*667 ANTENNA__665__A
*668 ANTENNA__666__A
*669 ANTENNA__669__A
*670 ANTENNA__671__A
*671 ANTENNA__672__A
*672 ANTENNA__673__A
*673 ANTENNA__674__A
*674 ANTENNA_clkbuf_0_wb_clk_i_A
*675 ANTENNA_fanout13_A
*676 ANTENNA_fanout14_A
*677 ANTENNA_fanout14_X
*678 ANTENNA_fanout15_A
*679 ANTENNA_fanout16_A
*680 ANTENNA_fanout17_A
*681 ANTENNA_fanout18_A
*682 ANTENNA_fanout18_X
*683 ANTENNA_fanout19_A
*684 ANTENNA_fanout19_X
*685 ANTENNA_input1_A
*686 ANTENNA_input1_X
*687 ANTENNA_output10_A
*688 ANTENNA_output11_A
*689 ANTENNA_output12_A
*690 ANTENNA_output2_A
*691 ANTENNA_output3_A
*692 ANTENNA_output4_A
*693 ANTENNA_output5_A
*694 ANTENNA_output6_A
*695 ANTENNA_output8_A
*696 ANTENNA_output9_A
*697 FILLER_0_109
*698 FILLER_0_111
*699 FILLER_0_113
*700 FILLER_0_125
*701 FILLER_0_137
*702 FILLER_0_139
*703 FILLER_0_141
*704 FILLER_0_15
*705 FILLER_0_153
*706 FILLER_0_165
*707 FILLER_0_167
*708 FILLER_0_169
*709 FILLER_0_181
*710 FILLER_0_193
*711 FILLER_0_195
*712 FILLER_0_197
*713 FILLER_0_209
*714 FILLER_0_221
*715 FILLER_0_223
*716 FILLER_0_225
*717 FILLER_0_237
*718 FILLER_0_249
*719 FILLER_0_251
*720 FILLER_0_253
*721 FILLER_0_265
*722 FILLER_0_27
*723 FILLER_0_277
*724 FILLER_0_279
*725 FILLER_0_281
*726 FILLER_0_29
*727 FILLER_0_293
*728 FILLER_0_3
*729 FILLER_0_305
*730 FILLER_0_307
*731 FILLER_0_309
*732 FILLER_0_321
*733 FILLER_0_333
*734 FILLER_0_335
*735 FILLER_0_337
*736 FILLER_0_349
*737 FILLER_0_361
*738 FILLER_0_363
*739 FILLER_0_365
*740 FILLER_0_377
*741 FILLER_0_389
*742 FILLER_0_391
*743 FILLER_0_393
*744 FILLER_0_405
*745 FILLER_0_41
*746 FILLER_0_53
*747 FILLER_0_55
*748 FILLER_0_57
*749 FILLER_0_69
*750 FILLER_0_81
*751 FILLER_0_83
*752 FILLER_0_85
*753 FILLER_0_97
*754 FILLER_1000_109
*755 FILLER_1000_121
*756 FILLER_1000_133
*757 FILLER_1000_137
*758 FILLER_1000_139
*759 FILLER_1000_141
*760 FILLER_1000_15
*761 FILLER_1000_153
*762 FILLER_1000_165
*763 FILLER_1000_177
*764 FILLER_1000_189
*765 FILLER_1000_193
*766 FILLER_1000_195
*767 FILLER_1000_197
*768 FILLER_1000_209
*769 FILLER_1000_221
*770 FILLER_1000_233
*771 FILLER_1000_245
*772 FILLER_1000_249
*773 FILLER_1000_251
*774 FILLER_1000_253
*775 FILLER_1000_265
*776 FILLER_1000_27
*777 FILLER_1000_277
*778 FILLER_1000_289
*779 FILLER_1000_29
*780 FILLER_1000_3
*781 FILLER_1000_301
*782 FILLER_1000_305
*783 FILLER_1000_307
*784 FILLER_1000_309
*785 FILLER_1000_321
*786 FILLER_1000_333
*787 FILLER_1000_345
*788 FILLER_1000_357
*789 FILLER_1000_361
*790 FILLER_1000_363
*791 FILLER_1000_365
*792 FILLER_1000_377
*793 FILLER_1000_389
*794 FILLER_1000_401
*795 FILLER_1000_405
*796 FILLER_1000_41
*797 FILLER_1000_53
*798 FILLER_1000_65
*799 FILLER_1000_77
*800 FILLER_1000_81
*801 FILLER_1000_83
*802 FILLER_1000_85
*803 FILLER_1000_97
*804 FILLER_1001_105
*805 FILLER_1001_109
*806 FILLER_1001_111
*807 FILLER_1001_113
*808 FILLER_1001_125
*809 FILLER_1001_137
*810 FILLER_1001_149
*811 FILLER_1001_15
*812 FILLER_1001_161
*813 FILLER_1001_165
*814 FILLER_1001_167
*815 FILLER_1001_169
*816 FILLER_1001_181
*817 FILLER_1001_193
*818 FILLER_1001_205
*819 FILLER_1001_217
*820 FILLER_1001_221
*821 FILLER_1001_223
*822 FILLER_1001_225
*823 FILLER_1001_237
*824 FILLER_1001_249
*825 FILLER_1001_261
*826 FILLER_1001_27
*827 FILLER_1001_273
*828 FILLER_1001_277
*829 FILLER_1001_279
*830 FILLER_1001_281
*831 FILLER_1001_293
*832 FILLER_1001_3
*833 FILLER_1001_305
*834 FILLER_1001_317
*835 FILLER_1001_329
*836 FILLER_1001_333
*837 FILLER_1001_335
*838 FILLER_1001_337
*839 FILLER_1001_349
*840 FILLER_1001_361
*841 FILLER_1001_373
*842 FILLER_1001_385
*843 FILLER_1001_389
*844 FILLER_1001_39
*845 FILLER_1001_391
*846 FILLER_1001_393
*847 FILLER_1001_405
*848 FILLER_1001_51
*849 FILLER_1001_55
*850 FILLER_1001_57
*851 FILLER_1001_69
*852 FILLER_1001_81
*853 FILLER_1001_93
*854 FILLER_1002_109
*855 FILLER_1002_121
*856 FILLER_1002_133
*857 FILLER_1002_137
*858 FILLER_1002_139
*859 FILLER_1002_141
*860 FILLER_1002_15
*861 FILLER_1002_153
*862 FILLER_1002_165
*863 FILLER_1002_177
*864 FILLER_1002_189
*865 FILLER_1002_193
*866 FILLER_1002_195
*867 FILLER_1002_197
*868 FILLER_1002_209
*869 FILLER_1002_221
*870 FILLER_1002_233
*871 FILLER_1002_245
*872 FILLER_1002_249
*873 FILLER_1002_251
*874 FILLER_1002_253
*875 FILLER_1002_265
*876 FILLER_1002_27
*877 FILLER_1002_277
*878 FILLER_1002_289
*879 FILLER_1002_29
*880 FILLER_1002_3
*881 FILLER_1002_301
*882 FILLER_1002_305
*883 FILLER_1002_307
*884 FILLER_1002_309
*885 FILLER_1002_321
*886 FILLER_1002_333
*887 FILLER_1002_345
*888 FILLER_1002_357
*889 FILLER_1002_361
*890 FILLER_1002_363
*891 FILLER_1002_365
*892 FILLER_1002_377
*893 FILLER_1002_389
*894 FILLER_1002_401
*895 FILLER_1002_405
*896 FILLER_1002_41
*897 FILLER_1002_53
*898 FILLER_1002_65
*899 FILLER_1002_77
*900 FILLER_1002_81
*901 FILLER_1002_83
*902 FILLER_1002_85
*903 FILLER_1002_97
*904 FILLER_1003_105
*905 FILLER_1003_109
*906 FILLER_1003_111
*907 FILLER_1003_113
*908 FILLER_1003_125
*909 FILLER_1003_137
*910 FILLER_1003_149
*911 FILLER_1003_15
*912 FILLER_1003_161
*913 FILLER_1003_165
*914 FILLER_1003_167
*915 FILLER_1003_169
*916 FILLER_1003_181
*917 FILLER_1003_193
*918 FILLER_1003_205
*919 FILLER_1003_217
*920 FILLER_1003_221
*921 FILLER_1003_223
*922 FILLER_1003_225
*923 FILLER_1003_237
*924 FILLER_1003_249
*925 FILLER_1003_261
*926 FILLER_1003_27
*927 FILLER_1003_273
*928 FILLER_1003_277
*929 FILLER_1003_279
*930 FILLER_1003_281
*931 FILLER_1003_293
*932 FILLER_1003_3
*933 FILLER_1003_305
*934 FILLER_1003_317
*935 FILLER_1003_329
*936 FILLER_1003_333
*937 FILLER_1003_335
*938 FILLER_1003_337
*939 FILLER_1003_349
*940 FILLER_1003_361
*941 FILLER_1003_373
*942 FILLER_1003_385
*943 FILLER_1003_389
*944 FILLER_1003_39
*945 FILLER_1003_391
*946 FILLER_1003_393
*947 FILLER_1003_405
*948 FILLER_1003_51
*949 FILLER_1003_55
*950 FILLER_1003_57
*951 FILLER_1003_69
*952 FILLER_1003_81
*953 FILLER_1003_93
*954 FILLER_1004_109
*955 FILLER_1004_121
*956 FILLER_1004_133
*957 FILLER_1004_137
*958 FILLER_1004_139
*959 FILLER_1004_141
*960 FILLER_1004_15
*961 FILLER_1004_153
*962 FILLER_1004_165
*963 FILLER_1004_177
*964 FILLER_1004_189
*965 FILLER_1004_193
*966 FILLER_1004_195
*967 FILLER_1004_197
*968 FILLER_1004_209
*969 FILLER_1004_221
*970 FILLER_1004_233
*971 FILLER_1004_245
*972 FILLER_1004_249
*973 FILLER_1004_251
*974 FILLER_1004_253
*975 FILLER_1004_265
*976 FILLER_1004_27
*977 FILLER_1004_277
*978 FILLER_1004_289
*979 FILLER_1004_29
*980 FILLER_1004_3
*981 FILLER_1004_301
*982 FILLER_1004_305
*983 FILLER_1004_307
*984 FILLER_1004_309
*985 FILLER_1004_321
*986 FILLER_1004_333
*987 FILLER_1004_345
*988 FILLER_1004_357
*989 FILLER_1004_361
*990 FILLER_1004_363
*991 FILLER_1004_365
*992 FILLER_1004_377
*993 FILLER_1004_389
*994 FILLER_1004_401
*995 FILLER_1004_405
*996 FILLER_1004_41
*997 FILLER_1004_53
*998 FILLER_1004_65
*999 FILLER_1004_77
*1000 FILLER_1004_81
*1001 FILLER_1004_83
*1002 FILLER_1004_85
*1003 FILLER_1004_97
*1004 FILLER_1005_105
*1005 FILLER_1005_109
*1006 FILLER_1005_111
*1007 FILLER_1005_113
*1008 FILLER_1005_125
*1009 FILLER_1005_137
*1010 FILLER_1005_149
*1011 FILLER_1005_15
*1012 FILLER_1005_161
*1013 FILLER_1005_165
*1014 FILLER_1005_167
*1015 FILLER_1005_169
*1016 FILLER_1005_181
*1017 FILLER_1005_193
*1018 FILLER_1005_205
*1019 FILLER_1005_217
*1020 FILLER_1005_221
*1021 FILLER_1005_223
*1022 FILLER_1005_225
*1023 FILLER_1005_237
*1024 FILLER_1005_249
*1025 FILLER_1005_261
*1026 FILLER_1005_27
*1027 FILLER_1005_273
*1028 FILLER_1005_277
*1029 FILLER_1005_279
*1030 FILLER_1005_281
*1031 FILLER_1005_293
*1032 FILLER_1005_3
*1033 FILLER_1005_305
*1034 FILLER_1005_317
*1035 FILLER_1005_329
*1036 FILLER_1005_333
*1037 FILLER_1005_335
*1038 FILLER_1005_337
*1039 FILLER_1005_349
*1040 FILLER_1005_361
*1041 FILLER_1005_373
*1042 FILLER_1005_385
*1043 FILLER_1005_389
*1044 FILLER_1005_39
*1045 FILLER_1005_391
*1046 FILLER_1005_393
*1047 FILLER_1005_405
*1048 FILLER_1005_51
*1049 FILLER_1005_55
*1050 FILLER_1005_57
*1051 FILLER_1005_69
*1052 FILLER_1005_81
*1053 FILLER_1005_93
*1054 FILLER_1006_109
*1055 FILLER_1006_121
*1056 FILLER_1006_133
*1057 FILLER_1006_137
*1058 FILLER_1006_139
*1059 FILLER_1006_141
*1060 FILLER_1006_15
*1061 FILLER_1006_153
*1062 FILLER_1006_165
*1063 FILLER_1006_177
*1064 FILLER_1006_189
*1065 FILLER_1006_193
*1066 FILLER_1006_195
*1067 FILLER_1006_197
*1068 FILLER_1006_209
*1069 FILLER_1006_221
*1070 FILLER_1006_233
*1071 FILLER_1006_245
*1072 FILLER_1006_249
*1073 FILLER_1006_251
*1074 FILLER_1006_253
*1075 FILLER_1006_265
*1076 FILLER_1006_27
*1077 FILLER_1006_277
*1078 FILLER_1006_289
*1079 FILLER_1006_29
*1080 FILLER_1006_3
*1081 FILLER_1006_301
*1082 FILLER_1006_305
*1083 FILLER_1006_307
*1084 FILLER_1006_309
*1085 FILLER_1006_321
*1086 FILLER_1006_333
*1087 FILLER_1006_345
*1088 FILLER_1006_357
*1089 FILLER_1006_361
*1090 FILLER_1006_363
*1091 FILLER_1006_365
*1092 FILLER_1006_377
*1093 FILLER_1006_389
*1094 FILLER_1006_401
*1095 FILLER_1006_405
*1096 FILLER_1006_41
*1097 FILLER_1006_53
*1098 FILLER_1006_65
*1099 FILLER_1006_77
*1100 FILLER_1006_81
*1101 FILLER_1006_83
*1102 FILLER_1006_85
*1103 FILLER_1006_97
*1104 FILLER_1007_105
*1105 FILLER_1007_109
*1106 FILLER_1007_111
*1107 FILLER_1007_113
*1108 FILLER_1007_125
*1109 FILLER_1007_137
*1110 FILLER_1007_149
*1111 FILLER_1007_15
*1112 FILLER_1007_161
*1113 FILLER_1007_165
*1114 FILLER_1007_167
*1115 FILLER_1007_169
*1116 FILLER_1007_181
*1117 FILLER_1007_193
*1118 FILLER_1007_205
*1119 FILLER_1007_217
*1120 FILLER_1007_221
*1121 FILLER_1007_223
*1122 FILLER_1007_225
*1123 FILLER_1007_237
*1124 FILLER_1007_249
*1125 FILLER_1007_261
*1126 FILLER_1007_27
*1127 FILLER_1007_273
*1128 FILLER_1007_277
*1129 FILLER_1007_279
*1130 FILLER_1007_281
*1131 FILLER_1007_293
*1132 FILLER_1007_3
*1133 FILLER_1007_305
*1134 FILLER_1007_317
*1135 FILLER_1007_329
*1136 FILLER_1007_333
*1137 FILLER_1007_335
*1138 FILLER_1007_337
*1139 FILLER_1007_349
*1140 FILLER_1007_361
*1141 FILLER_1007_373
*1142 FILLER_1007_385
*1143 FILLER_1007_389
*1144 FILLER_1007_39
*1145 FILLER_1007_391
*1146 FILLER_1007_393
*1147 FILLER_1007_405
*1148 FILLER_1007_51
*1149 FILLER_1007_55
*1150 FILLER_1007_57
*1151 FILLER_1007_69
*1152 FILLER_1007_81
*1153 FILLER_1007_93
*1154 FILLER_1008_109
*1155 FILLER_1008_121
*1156 FILLER_1008_133
*1157 FILLER_1008_137
*1158 FILLER_1008_139
*1159 FILLER_1008_141
*1160 FILLER_1008_15
*1161 FILLER_1008_153
*1162 FILLER_1008_165
*1163 FILLER_1008_177
*1164 FILLER_1008_189
*1165 FILLER_1008_193
*1166 FILLER_1008_195
*1167 FILLER_1008_197
*1168 FILLER_1008_209
*1169 FILLER_1008_221
*1170 FILLER_1008_233
*1171 FILLER_1008_245
*1172 FILLER_1008_249
*1173 FILLER_1008_251
*1174 FILLER_1008_253
*1175 FILLER_1008_265
*1176 FILLER_1008_27
*1177 FILLER_1008_277
*1178 FILLER_1008_289
*1179 FILLER_1008_29
*1180 FILLER_1008_3
*1181 FILLER_1008_301
*1182 FILLER_1008_305
*1183 FILLER_1008_307
*1184 FILLER_1008_309
*1185 FILLER_1008_321
*1186 FILLER_1008_333
*1187 FILLER_1008_345
*1188 FILLER_1008_357
*1189 FILLER_1008_361
*1190 FILLER_1008_363
*1191 FILLER_1008_365
*1192 FILLER_1008_377
*1193 FILLER_1008_389
*1194 FILLER_1008_401
*1195 FILLER_1008_405
*1196 FILLER_1008_41
*1197 FILLER_1008_53
*1198 FILLER_1008_65
*1199 FILLER_1008_77
*1200 FILLER_1008_81
*1201 FILLER_1008_83
*1202 FILLER_1008_85
*1203 FILLER_1008_97
*1204 FILLER_1009_105
*1205 FILLER_1009_109
*1206 FILLER_1009_111
*1207 FILLER_1009_113
*1208 FILLER_1009_125
*1209 FILLER_1009_137
*1210 FILLER_1009_149
*1211 FILLER_1009_15
*1212 FILLER_1009_161
*1213 FILLER_1009_165
*1214 FILLER_1009_167
*1215 FILLER_1009_169
*1216 FILLER_1009_181
*1217 FILLER_1009_193
*1218 FILLER_1009_205
*1219 FILLER_1009_217
*1220 FILLER_1009_221
*1221 FILLER_1009_223
*1222 FILLER_1009_225
*1223 FILLER_1009_237
*1224 FILLER_1009_249
*1225 FILLER_1009_261
*1226 FILLER_1009_27
*1227 FILLER_1009_273
*1228 FILLER_1009_277
*1229 FILLER_1009_279
*1230 FILLER_1009_281
*1231 FILLER_1009_293
*1232 FILLER_1009_3
*1233 FILLER_1009_305
*1234 FILLER_1009_317
*1235 FILLER_1009_329
*1236 FILLER_1009_333
*1237 FILLER_1009_335
*1238 FILLER_1009_337
*1239 FILLER_1009_349
*1240 FILLER_1009_361
*1241 FILLER_1009_373
*1242 FILLER_1009_385
*1243 FILLER_1009_389
*1244 FILLER_1009_39
*1245 FILLER_1009_391
*1246 FILLER_1009_393
*1247 FILLER_1009_405
*1248 FILLER_1009_51
*1249 FILLER_1009_55
*1250 FILLER_1009_57
*1251 FILLER_1009_69
*1252 FILLER_1009_81
*1253 FILLER_1009_93
*1254 FILLER_100_109
*1255 FILLER_100_121
*1256 FILLER_100_133
*1257 FILLER_100_137
*1258 FILLER_100_139
*1259 FILLER_100_141
*1260 FILLER_100_15
*1261 FILLER_100_153
*1262 FILLER_100_165
*1263 FILLER_100_177
*1264 FILLER_100_189
*1265 FILLER_100_193
*1266 FILLER_100_195
*1267 FILLER_100_197
*1268 FILLER_100_209
*1269 FILLER_100_221
*1270 FILLER_100_233
*1271 FILLER_100_245
*1272 FILLER_100_249
*1273 FILLER_100_251
*1274 FILLER_100_253
*1275 FILLER_100_265
*1276 FILLER_100_27
*1277 FILLER_100_277
*1278 FILLER_100_289
*1279 FILLER_100_29
*1280 FILLER_100_3
*1281 FILLER_100_301
*1282 FILLER_100_305
*1283 FILLER_100_307
*1284 FILLER_100_309
*1285 FILLER_100_321
*1286 FILLER_100_333
*1287 FILLER_100_345
*1288 FILLER_100_357
*1289 FILLER_100_361
*1290 FILLER_100_363
*1291 FILLER_100_365
*1292 FILLER_100_377
*1293 FILLER_100_389
*1294 FILLER_100_401
*1295 FILLER_100_405
*1296 FILLER_100_41
*1297 FILLER_100_53
*1298 FILLER_100_65
*1299 FILLER_100_77
*1300 FILLER_100_81
*1301 FILLER_100_83
*1302 FILLER_100_85
*1303 FILLER_100_97
*1304 FILLER_1010_109
*1305 FILLER_1010_121
*1306 FILLER_1010_133
*1307 FILLER_1010_137
*1308 FILLER_1010_139
*1309 FILLER_1010_141
*1310 FILLER_1010_15
*1311 FILLER_1010_153
*1312 FILLER_1010_165
*1313 FILLER_1010_177
*1314 FILLER_1010_189
*1315 FILLER_1010_193
*1316 FILLER_1010_195
*1317 FILLER_1010_197
*1318 FILLER_1010_209
*1319 FILLER_1010_221
*1320 FILLER_1010_233
*1321 FILLER_1010_245
*1322 FILLER_1010_249
*1323 FILLER_1010_251
*1324 FILLER_1010_253
*1325 FILLER_1010_265
*1326 FILLER_1010_27
*1327 FILLER_1010_277
*1328 FILLER_1010_289
*1329 FILLER_1010_29
*1330 FILLER_1010_3
*1331 FILLER_1010_301
*1332 FILLER_1010_305
*1333 FILLER_1010_307
*1334 FILLER_1010_309
*1335 FILLER_1010_321
*1336 FILLER_1010_333
*1337 FILLER_1010_345
*1338 FILLER_1010_357
*1339 FILLER_1010_361
*1340 FILLER_1010_363
*1341 FILLER_1010_365
*1342 FILLER_1010_377
*1343 FILLER_1010_389
*1344 FILLER_1010_401
*1345 FILLER_1010_405
*1346 FILLER_1010_41
*1347 FILLER_1010_53
*1348 FILLER_1010_65
*1349 FILLER_1010_77
*1350 FILLER_1010_81
*1351 FILLER_1010_83
*1352 FILLER_1010_85
*1353 FILLER_1010_97
*1354 FILLER_1011_105
*1355 FILLER_1011_109
*1356 FILLER_1011_111
*1357 FILLER_1011_113
*1358 FILLER_1011_125
*1359 FILLER_1011_137
*1360 FILLER_1011_149
*1361 FILLER_1011_15
*1362 FILLER_1011_161
*1363 FILLER_1011_165
*1364 FILLER_1011_167
*1365 FILLER_1011_169
*1366 FILLER_1011_181
*1367 FILLER_1011_193
*1368 FILLER_1011_205
*1369 FILLER_1011_217
*1370 FILLER_1011_221
*1371 FILLER_1011_223
*1372 FILLER_1011_225
*1373 FILLER_1011_237
*1374 FILLER_1011_249
*1375 FILLER_1011_261
*1376 FILLER_1011_27
*1377 FILLER_1011_273
*1378 FILLER_1011_277
*1379 FILLER_1011_279
*1380 FILLER_1011_281
*1381 FILLER_1011_293
*1382 FILLER_1011_3
*1383 FILLER_1011_305
*1384 FILLER_1011_317
*1385 FILLER_1011_329
*1386 FILLER_1011_333
*1387 FILLER_1011_335
*1388 FILLER_1011_337
*1389 FILLER_1011_349
*1390 FILLER_1011_361
*1391 FILLER_1011_373
*1392 FILLER_1011_385
*1393 FILLER_1011_389
*1394 FILLER_1011_39
*1395 FILLER_1011_391
*1396 FILLER_1011_393
*1397 FILLER_1011_405
*1398 FILLER_1011_51
*1399 FILLER_1011_55
*1400 FILLER_1011_57
*1401 FILLER_1011_69
*1402 FILLER_1011_81
*1403 FILLER_1011_93
*1404 FILLER_1012_109
*1405 FILLER_1012_121
*1406 FILLER_1012_133
*1407 FILLER_1012_137
*1408 FILLER_1012_139
*1409 FILLER_1012_141
*1410 FILLER_1012_15
*1411 FILLER_1012_153
*1412 FILLER_1012_165
*1413 FILLER_1012_177
*1414 FILLER_1012_189
*1415 FILLER_1012_193
*1416 FILLER_1012_195
*1417 FILLER_1012_197
*1418 FILLER_1012_209
*1419 FILLER_1012_221
*1420 FILLER_1012_233
*1421 FILLER_1012_245
*1422 FILLER_1012_249
*1423 FILLER_1012_251
*1424 FILLER_1012_253
*1425 FILLER_1012_265
*1426 FILLER_1012_27
*1427 FILLER_1012_277
*1428 FILLER_1012_289
*1429 FILLER_1012_29
*1430 FILLER_1012_3
*1431 FILLER_1012_301
*1432 FILLER_1012_305
*1433 FILLER_1012_307
*1434 FILLER_1012_309
*1435 FILLER_1012_321
*1436 FILLER_1012_333
*1437 FILLER_1012_345
*1438 FILLER_1012_357
*1439 FILLER_1012_361
*1440 FILLER_1012_363
*1441 FILLER_1012_365
*1442 FILLER_1012_377
*1443 FILLER_1012_389
*1444 FILLER_1012_401
*1445 FILLER_1012_405
*1446 FILLER_1012_41
*1447 FILLER_1012_53
*1448 FILLER_1012_65
*1449 FILLER_1012_77
*1450 FILLER_1012_81
*1451 FILLER_1012_83
*1452 FILLER_1012_85
*1453 FILLER_1012_97
*1454 FILLER_1013_105
*1455 FILLER_1013_109
*1456 FILLER_1013_111
*1457 FILLER_1013_113
*1458 FILLER_1013_125
*1459 FILLER_1013_137
*1460 FILLER_1013_149
*1461 FILLER_1013_15
*1462 FILLER_1013_161
*1463 FILLER_1013_165
*1464 FILLER_1013_167
*1465 FILLER_1013_169
*1466 FILLER_1013_181
*1467 FILLER_1013_193
*1468 FILLER_1013_205
*1469 FILLER_1013_217
*1470 FILLER_1013_221
*1471 FILLER_1013_223
*1472 FILLER_1013_225
*1473 FILLER_1013_237
*1474 FILLER_1013_249
*1475 FILLER_1013_261
*1476 FILLER_1013_27
*1477 FILLER_1013_273
*1478 FILLER_1013_277
*1479 FILLER_1013_279
*1480 FILLER_1013_281
*1481 FILLER_1013_293
*1482 FILLER_1013_3
*1483 FILLER_1013_305
*1484 FILLER_1013_317
*1485 FILLER_1013_329
*1486 FILLER_1013_333
*1487 FILLER_1013_335
*1488 FILLER_1013_337
*1489 FILLER_1013_349
*1490 FILLER_1013_361
*1491 FILLER_1013_373
*1492 FILLER_1013_385
*1493 FILLER_1013_389
*1494 FILLER_1013_39
*1495 FILLER_1013_391
*1496 FILLER_1013_393
*1497 FILLER_1013_405
*1498 FILLER_1013_51
*1499 FILLER_1013_55
*1500 FILLER_1013_57
*1501 FILLER_1013_69
*1502 FILLER_1013_81
*1503 FILLER_1013_93
*1504 FILLER_1014_109
*1505 FILLER_1014_121
*1506 FILLER_1014_133
*1507 FILLER_1014_137
*1508 FILLER_1014_139
*1509 FILLER_1014_141
*1510 FILLER_1014_15
*1511 FILLER_1014_153
*1512 FILLER_1014_165
*1513 FILLER_1014_177
*1514 FILLER_1014_189
*1515 FILLER_1014_193
*1516 FILLER_1014_195
*1517 FILLER_1014_197
*1518 FILLER_1014_209
*1519 FILLER_1014_221
*1520 FILLER_1014_233
*1521 FILLER_1014_245
*1522 FILLER_1014_249
*1523 FILLER_1014_251
*1524 FILLER_1014_253
*1525 FILLER_1014_265
*1526 FILLER_1014_27
*1527 FILLER_1014_277
*1528 FILLER_1014_289
*1529 FILLER_1014_29
*1530 FILLER_1014_3
*1531 FILLER_1014_301
*1532 FILLER_1014_305
*1533 FILLER_1014_307
*1534 FILLER_1014_309
*1535 FILLER_1014_321
*1536 FILLER_1014_333
*1537 FILLER_1014_345
*1538 FILLER_1014_357
*1539 FILLER_1014_361
*1540 FILLER_1014_363
*1541 FILLER_1014_365
*1542 FILLER_1014_377
*1543 FILLER_1014_389
*1544 FILLER_1014_401
*1545 FILLER_1014_405
*1546 FILLER_1014_41
*1547 FILLER_1014_53
*1548 FILLER_1014_65
*1549 FILLER_1014_77
*1550 FILLER_1014_81
*1551 FILLER_1014_83
*1552 FILLER_1014_85
*1553 FILLER_1014_97
*1554 FILLER_1015_105
*1555 FILLER_1015_109
*1556 FILLER_1015_111
*1557 FILLER_1015_113
*1558 FILLER_1015_125
*1559 FILLER_1015_137
*1560 FILLER_1015_149
*1561 FILLER_1015_15
*1562 FILLER_1015_161
*1563 FILLER_1015_165
*1564 FILLER_1015_167
*1565 FILLER_1015_169
*1566 FILLER_1015_181
*1567 FILLER_1015_193
*1568 FILLER_1015_205
*1569 FILLER_1015_217
*1570 FILLER_1015_221
*1571 FILLER_1015_223
*1572 FILLER_1015_225
*1573 FILLER_1015_237
*1574 FILLER_1015_249
*1575 FILLER_1015_261
*1576 FILLER_1015_27
*1577 FILLER_1015_273
*1578 FILLER_1015_277
*1579 FILLER_1015_279
*1580 FILLER_1015_281
*1581 FILLER_1015_293
*1582 FILLER_1015_3
*1583 FILLER_1015_305
*1584 FILLER_1015_317
*1585 FILLER_1015_329
*1586 FILLER_1015_333
*1587 FILLER_1015_335
*1588 FILLER_1015_337
*1589 FILLER_1015_349
*1590 FILLER_1015_361
*1591 FILLER_1015_373
*1592 FILLER_1015_385
*1593 FILLER_1015_389
*1594 FILLER_1015_39
*1595 FILLER_1015_391
*1596 FILLER_1015_393
*1597 FILLER_1015_405
*1598 FILLER_1015_51
*1599 FILLER_1015_55
*1600 FILLER_1015_57
*1601 FILLER_1015_69
*1602 FILLER_1015_81
*1603 FILLER_1015_93
*1604 FILLER_1016_109
*1605 FILLER_1016_121
*1606 FILLER_1016_133
*1607 FILLER_1016_137
*1608 FILLER_1016_139
*1609 FILLER_1016_141
*1610 FILLER_1016_15
*1611 FILLER_1016_153
*1612 FILLER_1016_165
*1613 FILLER_1016_177
*1614 FILLER_1016_189
*1615 FILLER_1016_193
*1616 FILLER_1016_195
*1617 FILLER_1016_197
*1618 FILLER_1016_209
*1619 FILLER_1016_221
*1620 FILLER_1016_233
*1621 FILLER_1016_245
*1622 FILLER_1016_249
*1623 FILLER_1016_251
*1624 FILLER_1016_253
*1625 FILLER_1016_265
*1626 FILLER_1016_27
*1627 FILLER_1016_277
*1628 FILLER_1016_289
*1629 FILLER_1016_29